Compound
 OpenBabel09222313263D

152161  0  0  1  0  0  0  0  0999 V2000
    0.0659    2.5647    1.2248 C   0  0  0  0  0  3  0  0  0  0  0  0
   -0.2840    1.9231    0.0970 C   0  0  1  0  0  3  0  0  0  0  0  0
    0.1887    0.5779   -0.1310 N   0  0  0  0  0  0  0  0  0  0  0  0
    0.5956   -0.3382    0.9115 C   0  0  0  0  0  0  0  0  0  0  0  0
    0.6436   -1.6802    0.1875 C   0  0  0  0  0  0  0  0  0  0  0  0
    1.0941   -1.3239   -1.2243 C   0  0  0  0  0  0  0  0  0  0  0  0
    0.5402    0.0543   -1.3343 C   0  0  1  0  0  3  0  0  0  0  0  0
    0.5301    0.6923   -2.3768 O   0  0  0  0  0  1  0  0  0  0  0  0
    0.7000    2.0990    1.9706 H   0  0  0  0  0  0  0  0  0  0  0  0
   -0.1310   -0.3882    1.7516 H   0  0  0  0  0  0  0  0  0  0  0  0
    1.6042   -0.0419    1.2736 H   0  0  0  0  0  0  0  0  0  0  0  0
   -0.4209   -1.9992    0.0952 H   0  0  0  0  0  0  0  0  0  0  0  0
    1.1947   -2.5023    0.6899 H   0  0  0  0  0  0  0  0  0  0  0  0
    2.1983   -1.2580   -1.3180 H   0  0  0  0  0  0  0  0  0  0  0  0
    0.6732   -2.0501   -1.9543 H   0  0  0  0  0  0  0  0  0  0  0  0
   -1.1677    2.6737   -0.8682 C   0  0  0  0  0  3  0  0  0  0  0  0
   -2.0520    2.1444   -1.7609 C   0  0  1  0  0  3  0  0  0  0  0  0
   -2.7866    3.0338   -2.6355 N   0  0  0  0  0  0  0  0  0  0  0  0
   -2.3808    4.3840   -2.9642 C   0  0  0  0  0  0  0  0  0  0  0  0
   -3.2300    4.7120   -4.1877 C   0  0  0  0  0  0  0  0  0  0  0  0
   -4.5357    3.9659   -3.9435 C   0  0  0  0  0  0  0  0  0  0  0  0
   -4.0341    2.8215   -3.1318 C   0  0  1  0  0  3  0  0  0  0  0  0
   -4.7217    1.8538   -2.8424 O   0  0  0  0  0  1  0  0  0  0  0  0
   -1.1100    3.7553   -0.7999 H   0  0  0  0  0  0  0  0  0  0  0  0
   -1.3025    4.4626   -3.2249 H   0  0  0  0  0  0  0  0  0  0  0  0
   -2.6359    5.0506   -2.1115 H   0  0  0  0  0  0  0  0  0  0  0  0
   -2.7336    4.1857   -5.0367 H   0  0  0  0  0  0  0  0  0  0  0  0
   -3.3165    5.7833   -4.4657 H   0  0  0  0  0  0  0  0  0  0  0  0
   -5.2504    4.5430   -3.3201 H   0  0  0  0  0  0  0  0  0  0  0  0
   -4.9942    3.6767   -4.9150 H   0  0  0  0  0  0  0  0  0  0  0  0
   -2.2521    0.6538   -1.7890 C   0  0  0  0  0  3  0  0  0  0  0  0
   -2.4836   -0.1203   -2.8795 C   0  0  2  0  0  3  0  0  0  0  0  0
   -2.5354   -1.5553   -2.7050 N   0  0  0  0  0  0  0  0  0  0  0  0
   -3.1608   -2.2274   -1.5821 C   0  0  0  0  0  0  0  0  0  0  0  0
   -2.6984   -3.6763   -1.7274 C   0  0  0  0  0  0  0  0  0  0  0  0
   -2.4691   -3.8672   -3.2199 C   0  0  0  0  0  0  0  0  0  0  0  0
   -2.1189   -2.4763   -3.6116 C   0  0  2  0  0  3  0  0  0  0  0  0
   -1.6046   -2.1887   -4.6822 O   0  0  0  0  0  1  0  0  0  0  0  0
   -2.1024    0.1477   -0.8482 H   0  0  0  0  0  0  0  0  0  0  0  0
   -4.2626   -2.1324   -1.6957 H   0  0  0  0  0  0  0  0  0  0  0  0
   -2.8509   -1.8576   -0.5844 H   0  0  0  0  0  0  0  0  0  0  0  0
   -3.3094   -4.4483   -1.2138 H   0  0  0  0  0  0  0  0  0  0  0  0
   -1.6801   -3.7026   -1.2751 H   0  0  0  0  0  0  0  0  0  0  0  0
   -1.6695   -4.6189   -3.3931 H   0  0  0  0  0  0  0  0  0  0  0  0
   -3.3974   -4.1436   -3.7586 H   0  0  0  0  0  0  0  0  0  0  0  0
   -2.5911    0.5321   -4.2309 C   0  0  0  0  0  3  0  0  0  0  0  0
   -3.4060    0.1412   -5.2434 C   0  0  1  0  0  3  0  0  0  0  0  0
   -3.4841    0.9699   -6.4247 N   0  0  0  0  0  0  0  0  0  0  0  0
   -2.3544    1.6344   -7.0452 C   0  0  0  0  0  0  0  0  0  0  0  0
   -3.0059    2.5935   -8.0407 C   0  0  0  0  0  0  0  0  0  0  0  0
   -4.3231    1.9310   -8.4202 C   0  0  0  0  0  0  0  0  0  0  0  0
   -4.5964    1.1612   -7.1789 C   0  0  1  0  0  3  0  0  0  0  0  0
   -5.6850    0.6716   -6.9170 O   0  0  0  0  0  1  0  0  0  0  0  0
   -2.0519    1.4579   -4.3584 H   0  0  0  0  0  0  0  0  0  0  0  0
   -1.7405    0.8616   -7.5568 H   0  0  0  0  0  0  0  0  0  0  0  0
   -1.7210    2.2238   -6.3522 H   0  0  0  0  0  0  0  0  0  0  0  0
   -2.3694    2.9535   -8.8764 H   0  0  0  0  0  0  0  0  0  0  0  0
   -3.2965    3.4842   -7.4366 H   0  0  0  0  0  0  0  0  0  0  0  0
   -5.0831    2.7018   -8.6704 H   0  0  0  0  0  0  0  0  0  0  0  0
   -4.2099    1.2015   -9.2464 H   0  0  0  0  0  0  0  0  0  0  0  0
   -4.2575   -1.0853   -5.0562 C   0  0  0  0  0  3  0  0  0  0  0  0
   -4.5973   -1.9861   -6.0096 C   0  0  2  0  0  3  0  0  0  0  0  0
   -5.2829   -3.1934   -5.6047 N   0  0  0  0  0  0  0  0  0  0  0  0
   -6.3029   -3.2656   -4.5747 C   0  0  0  0  0  0  0  0  0  0  0  0
   -6.4578   -4.7660   -4.3256 C   0  0  0  0  0  0  0  0  0  0  0  0
   -6.0743   -5.4264   -5.6426 C   0  0  0  0  0  0  0  0  0  0  0  0
   -5.1307   -4.4128   -6.1814 C   0  0  2  0  0  3  0  0  0  0  0  0
   -4.3639   -4.6343   -7.1062 O   0  0  0  0  0  1  0  0  0  0  0  0
   -4.5232   -1.3257   -4.0419 H   0  0  0  0  0  0  0  0  0  0  0  0
   -7.2334   -2.8143   -4.9814 H   0  0  0  0  0  0  0  0  0  0  0  0
   -6.0337   -2.7828   -3.6141 H   0  0  0  0  0  0  0  0  0  0  0  0
   -7.4071   -5.0993   -3.8565 H   0  0  0  0  0  0  0  0  0  0  0  0
   -5.6349   -5.0297   -3.6216 H   0  0  0  0  0  0  0  0  0  0  0  0
   -5.6279   -6.4266   -5.4544 H   0  0  0  0  0  0  0  0  0  0  0  0
   -6.9253   -5.4968   -6.3479 H   0  0  0  0  0  0  0  0  0  0  0  0
   -4.1672   -1.7354   -7.4285 C   0  0  0  0  0  3  0  0  0  0  0  0
   -4.8744   -2.0485   -8.5414 C   0  0  2  0  0  3  0  0  0  0  0  0
   -4.3916   -1.5768   -9.8210 N   0  0  0  0  0  0  0  0  0  0  0  0
   -2.9951   -1.5021  -10.2092 C   0  0  0  0  0  0  0  0  0  0  0  0
   -3.0189   -0.6582  -11.4839 C   0  0  0  0  0  0  0  0  0  0  0  0
   -4.3953   -0.8950  -12.0903 C   0  0  0  0  0  0  0  0  0  0  0  0
   -5.1754   -1.2057  -10.8653 C   0  0  2  0  0  3  0  0  0  0  0  0
   -6.3968   -1.2089  -10.8302 O   0  0  0  0  0  1  0  0  0  0  0  0
   -3.2754   -1.1498   -7.5594 H   0  0  0  0  0  0  0  0  0  0  0  0
   -2.6372   -2.5361  -10.4021 H   0  0  0  0  0  0  0  0  0  0  0  0
   -2.3316   -0.9995   -9.4765 H   0  0  0  0  0  0  0  0  0  0  0  0
   -2.1475   -0.7547  -12.1648 H   0  0  0  0  0  0  0  0  0  0  0  0
   -3.0393    0.3988  -11.1321 H   0  0  0  0  0  0  0  0  0  0  0  0
   -4.7324    0.0100  -12.6404 H   0  0  0  0  0  0  0  0  0  0  0  0
   -4.4289   -1.7902  -12.7403 H   0  0  0  0  0  0  0  0  0  0  0  0
   -6.1775   -2.7841   -8.3892 C   0  0  0  0  0  3  0  0  0  0  0  0
   -6.6623   -3.7300   -9.2311 C   0  0  2  0  0  3  0  0  0  0  0  0
   -7.8471   -4.4646   -8.8442 N   0  0  0  0  0  0  0  0  0  0  0  0
   -8.9665   -3.9145   -8.1023 C   0  0  0  0  0  0  0  0  0  0  0  0
   -9.7570   -5.1503   -7.6719 C   0  0  0  0  0  0  0  0  0  0  0  0
   -9.4566   -6.2001   -8.7322 C   0  0  0  0  0  0  0  0  0  0  0  0
   -8.1065   -5.7575   -9.1654 C   0  0  1  0  0  3  0  0  0  0  0  0
   -7.3451   -6.4633   -9.8097 O   0  0  0  0  0  1  0  0  0  0  0  0
   -6.7056   -2.6269   -7.4657 H   0  0  0  0  0  0  0  0  0  0  0  0
   -9.5482   -3.2646   -8.7908 H   0  0  0  0  0  0  0  0  0  0  0  0
   -8.6914   -3.3521   -7.1874 H   0  0  0  0  0  0  0  0  0  0  0  0
  -10.8237   -4.9956   -7.4073 H   0  0  0  0  0  0  0  0  0  0  0  0
   -9.2456   -5.5173   -6.7521 H   0  0  0  0  0  0  0  0  0  0  0  0
   -9.4907   -7.2168   -8.2842 H   0  0  0  0  0  0  0  0  0  0  0  0
  -10.1295   -6.1253   -9.6105 H   0  0  0  0  0  0  0  0  0  0  0  0
   -5.8924   -4.0419  -10.4823 C   0  0  0  0  0  3  0  0  0  0  0  0
   -6.4267   -4.3549  -11.6872 C   0  0  1  0  0  3  0  0  0  0  0  0
   -5.5482   -4.4330  -12.8354 N   0  0  0  0  0  0  0  0  0  0  0  0
   -4.1791   -4.9150  -12.8162 C   0  0  0  0  0  0  0  0  0  0  0  0
   -3.6113   -4.4487  -14.1574 C   0  0  0  0  0  0  0  0  0  0  0  0
   -4.8112   -4.3582  -15.0900 C   0  0  0  0  0  0  0  0  0  0  0  0
   -5.8913   -4.0930  -14.1024 C   0  0  1  0  0  3  0  0  0  0  0  0
   -6.9927   -3.6682  -14.4214 O   0  0  0  0  0  1  0  0  0  0  0  0
   -4.8298   -3.8782  -10.4362 H   0  0  0  0  0  0  0  0  0  0  0  0
   -4.2067   -6.0223  -12.7336 H   0  0  0  0  0  0  0  0  0  0  0  0
   -3.5433   -4.4890  -12.0145 H   0  0  0  0  0  0  0  0  0  0  0  0
   -2.7178   -4.9836  -14.5394 H   0  0  0  0  0  0  0  0  0  0  0  0
   -3.3028   -3.3908  -13.9888 H   0  0  0  0  0  0  0  0  0  0  0  0
   -4.6558   -3.5476  -15.8338 H   0  0  0  0  0  0  0  0  0  0  0  0
   -5.0421   -5.3183  -15.5929 H   0  0  0  0  0  0  0  0  0  0  0  0
   -7.9211   -4.4683  -11.8153 C   0  0  0  0  0  3  0  0  0  0  0  0
   -8.5880   -5.3486  -12.6104 C   0  0  1  0  0  3  0  0  0  0  0  0
  -10.0382   -5.4026  -12.5645 N   0  0  0  0  0  0  0  0  0  0  0  0
  -10.8932   -4.3433  -12.0518 C   0  0  0  0  0  0  0  0  0  0  0  0
  -12.2341   -5.0378  -11.8227 C   0  0  0  0  0  0  0  0  0  0  0  0
  -12.2752   -6.1387  -12.8659 C   0  0  0  0  0  0  0  0  0  0  0  0
  -10.8228   -6.4313  -12.9849 C   0  0  1  0  0  3  0  0  0  0  0  0
  -10.3976   -7.4788  -13.4440 O   0  0  0  0  0  1  0  0  0  0  0  0
   -8.4875   -3.8404  -11.1500 H   0  0  0  0  0  0  0  0  0  0  0  0
  -10.9556   -3.5420  -12.8184 H   0  0  0  0  0  0  0  0  0  0  0  0
  -10.5850   -3.9263  -11.0718 H   0  0  0  0  0  0  0  0  0  0  0  0
  -13.1280   -4.3843  -11.7475 H   0  0  0  0  0  0  0  0  0  0  0  0
  -12.1332   -5.5670  -10.8451 H   0  0  0  0  0  0  0  0  0  0  0  0
  -12.8927   -6.9884  -12.5011 H   0  0  0  0  0  0  0  0  0  0  0  0
  -12.6301   -5.7658  -13.8495 H   0  0  0  0  0  0  0  0  0  0  0  0
   -7.7739   -6.2906  -13.4384 C   0  0  0  0  0  3  0  0  0  0  0  0
   -8.1039   -6.6573  -14.6857 C   0  0  0  0  0  3  0  0  0  0  0  0
   -7.2274   -7.4413  -15.5004 N   0  0  0  0  0  0  0  0  0  0  0  0
   -6.0030   -8.0786  -15.0641 C   0  0  0  0  0  0  0  0  0  0  0  0
   -5.3197   -8.4447  -16.3794 C   0  0  0  0  0  0  0  0  0  0  0  0
   -6.4662   -8.6838  -17.3575 C   0  0  0  0  0  0  0  0  0  0  0  0
   -7.4968   -7.7803  -16.7786 C   0  0  1  0  0  3  0  0  0  0  0  0
   -8.5300   -7.4689  -17.3522 O   0  0  0  0  0  1  0  0  0  0  0  0
   -6.8104   -6.5928  -13.0502 H   0  0  0  0  0  0  0  0  0  0  0  0
   -6.2707   -8.9754  -14.4646 H   0  0  0  0  0  0  0  0  0  0  0  0
   -5.3258   -7.4137  -14.4886 H   0  0  0  0  0  0  0  0  0  0  0  0
   -4.5274   -9.2206  -16.3334 H   0  0  0  0  0  0  0  0  0  0  0  0
   -4.8343   -7.5011  -16.7246 H   0  0  0  0  0  0  0  0  0  0  0  0
   -6.1464   -8.4176  -18.3883 H   0  0  0  0  0  0  0  0  0  0  0  0
   -6.8587   -9.7210  -17.3104 H   0  0  0  0  0  0  0  0  0  0  0  0
   -0.2765    3.5761    1.4242 H   0  0  0  0  0  0  0  0  0  0  0  0
   -9.0275   -6.2837  -15.1178 H   0  0  0  0  0  0  0  0  0  0  0  0
  1  9  1  0  0  0  0
  1151  1  0  0  0  0
  2  1  1  1  0  0  0
  2  3  1  0  0  0  0
  2 16  1  0  0  0  0
  3  4  1  0  0  0  0
  3  7  1  0  0  0  0
  4  5  1  0  0  0  0
  4 10  1  0  0  0  0
  4 11  1  0  0  0  0
  5  6  1  0  0  0  0
  5 12  1  0  0  0  0
  5 13  1  0  0  0  0
  6  7  1  0  0  0  0
  6 14  1  0  0  0  0
  6 15  1  0  0  0  0
  7  8  1  6  0  0  0
 16 24  1  0  0  0  0
 17 16  1  6  0  0  0
 17 18  1  0  0  0  0
 17 31  1  0  0  0  0
 18 19  1  0  0  0  0
 18 22  1  0  0  0  0
 19 20  1  0  0  0  0
 19 25  1  0  0  0  0
 19 26  1  0  0  0  0
 20 21  1  0  0  0  0
 20 27  1  0  0  0  0
 20 28  1  0  0  0  0
 21 22  1  0  0  0  0
 21 29  1  0  0  0  0
 21 30  1  0  0  0  0
 22 23  1  6  0  0  0
 31 39  1  0  0  0  0
 32 31  1  6  0  0  0
 32 33  1  0  0  0  0
 32 46  1  0  0  0  0
 33 34  1  0  0  0  0
 33 37  1  0  0  0  0
 34 35  1  0  0  0  0
 34 40  1  0  0  0  0
 34 41  1  0  0  0  0
 35 36  1  0  0  0  0
 35 42  1  0  0  0  0
 35 43  1  0  0  0  0
 36 37  1  0  0  0  0
 36 44  1  0  0  0  0
 36 45  1  0  0  0  0
 37 38  1  1  0  0  0
 46 54  1  0  0  0  0
 47 46  1  6  0  0  0
 47 48  1  0  0  0  0
 47 61  1  0  0  0  0
 48 49  1  0  0  0  0
 48 52  1  0  0  0  0
 49 50  1  0  0  0  0
 49 55  1  0  0  0  0
 49 56  1  0  0  0  0
 50 51  1  0  0  0  0
 50 57  1  0  0  0  0
 50 58  1  0  0  0  0
 51 52  1  0  0  0  0
 51 59  1  0  0  0  0
 51 60  1  0  0  0  0
 52 53  1  6  0  0  0
 61 69  1  0  0  0  0
 62 61  1  1  0  0  0
 62 63  1  0  0  0  0
 62 76  1  0  0  0  0
 63 64  1  0  0  0  0
 63 67  1  0  0  0  0
 64 65  1  0  0  0  0
 64 70  1  0  0  0  0
 64 71  1  0  0  0  0
 65 66  1  0  0  0  0
 65 72  1  0  0  0  0
 65 73  1  0  0  0  0
 66 67  1  0  0  0  0
 66 74  1  0  0  0  0
 66 75  1  0  0  0  0
 67 68  1  1  0  0  0
 76 84  1  0  0  0  0
 77 76  1  1  0  0  0
 77 78  1  0  0  0  0
 77 91  1  0  0  0  0
 78 79  1  0  0  0  0
 78 82  1  0  0  0  0
 79 80  1  0  0  0  0
 79 85  1  0  0  0  0
 79 86  1  0  0  0  0
 80 81  1  0  0  0  0
 80 87  1  0  0  0  0
 80 88  1  0  0  0  0
 81 82  1  0  0  0  0
 81 89  1  0  0  0  0
 81 90  1  0  0  0  0
 82 83  1  1  0  0  0
 91 99  1  0  0  0  0
 92 91  1  1  0  0  0
 92 93  1  0  0  0  0
 92106  1  0  0  0  0
 93 94  1  0  0  0  0
 93 97  1  0  0  0  0
 94 95  1  0  0  0  0
 94100  1  0  0  0  0
 94101  1  0  0  0  0
 95 96  1  0  0  0  0
 95102  1  0  0  0  0
 95103  1  0  0  0  0
 96 97  1  0  0  0  0
 96104  1  0  0  0  0
 96105  1  0  0  0  0
 97 98  1  6  0  0  0
106114  1  0  0  0  0
107106  1  1  0  0  0
107108  1  0  0  0  0
107121  1  0  0  0  0
108109  1  0  0  0  0
108112  1  0  0  0  0
109110  1  0  0  0  0
109115  1  0  0  0  0
109116  1  0  0  0  0
110111  1  0  0  0  0
110117  1  0  0  0  0
110118  1  0  0  0  0
111112  1  0  0  0  0
111119  1  0  0  0  0
111120  1  0  0  0  0
112113  1  6  0  0  0
121129  1  0  0  0  0
122121  1  6  0  0  0
122123  1  0  0  0  0
122136  1  0  0  0  0
123124  1  0  0  0  0
123127  1  0  0  0  0
124125  1  0  0  0  0
124130  1  0  0  0  0
124131  1  0  0  0  0
125126  1  0  0  0  0
125132  1  0  0  0  0
125133  1  0  0  0  0
126127  1  0  0  0  0
126134  1  0  0  0  0
126135  1  0  0  0  0
127128  1  6  0  0  0
136137  1  0  0  0  0
136144  1  0  0  0  0
137138  1  0  0  0  0
137152  1  0  0  0  0
138139  1  0  0  0  0
138142  1  0  0  0  0
139140  1  0  0  0  0
139145  1  0  0  0  0
139146  1  0  0  0  0
140141  1  0  0  0  0
140147  1  0  0  0  0
140148  1  0  0  0  0
141142  1  0  0  0  0
141149  1  0  0  0  0
141150  1  0  0  0  0
142143  1  1  0  0  0
M  END
$$$$
